data/ENWL/enwl_kron_reduced/network_6/Feeder_2/Loads.txt
! Imported from Loads.txt, with modified neutral terminal
! --------------------------------------------------------------------------
New Load.LOAD1 Phases=1 Bus1=173.2 kV=0.23 kW=1.968  PF=0.95
New Load.LOAD2 Phases=1 Bus1=183.2 kV=0.23 kW=0.306  PF=0.95
New Load.LOAD3 Phases=1 Bus1=218.3 kV=0.23 kW=2.94  PF=0.95
New Load.LOAD4 Phases=1 Bus1=232.1 kV=0.23 kW=0.324  PF=0.95
New Load.LOAD5 Phases=1 Bus1=235.2 kV=0.23 kW=1.332  PF=0.95
New Load.LOAD6 Phases=1 Bus1=236.2 kV=0.23 kW=3.0540000000000003  PF=0.95
New Load.LOAD7 Phases=1 Bus1=243.2 kV=0.23 kW=2.0580000000000003  PF=0.95
New Load.LOAD8 Phases=1 Bus1=245.1 kV=0.23 kW=0.29400000000000004  PF=0.95
New Load.LOAD9 Phases=1 Bus1=246.1 kV=0.23 kW=0.312  PF=0.95
New Load.LOAD10 Phases=1 Bus1=253.3 kV=0.23 kW=0.27  PF=0.95
New Load.LOAD11 Phases=1 Bus1=308.1 kV=0.23 kW=0.33  PF=0.95
New Load.LOAD12 Phases=1 Bus1=332.1 kV=0.23 kW=0.33  PF=0.95
New Load.LOAD13 Phases=1 Bus1=395.2 kV=0.23 kW=0.246  PF=0.95
New Load.LOAD14 Phases=1 Bus1=403.2 kV=0.23 kW=2.04  PF=0.95
New Load.LOAD15 Phases=1 Bus1=406.1 kV=0.23 kW=0.8280000000000001  PF=0.95
New Load.LOAD16 Phases=1 Bus1=410.3 kV=0.23 kW=0.11399999999999999  PF=0.95
New Load.LOAD17 Phases=1 Bus1=417.2 kV=0.23 kW=0.28800000000000003  PF=0.95
New Load.LOAD18 Phases=1 Bus1=427.1 kV=0.23 kW=0.324  PF=0.95
New Load.LOAD19 Phases=1 Bus1=428.2 kV=0.23 kW=1.944  PF=0.95
New Load.LOAD20 Phases=1 Bus1=504.3 kV=0.23 kW=0.264  PF=0.95
New Load.LOAD21 Phases=1 Bus1=559.3 kV=0.23 kW=0.336  PF=0.95
New Load.LOAD22 Phases=1 Bus1=571.3 kV=0.23 kW=0.966  PF=0.95
New Load.LOAD23 Phases=1 Bus1=595.3 kV=0.23 kW=0.246  PF=0.95
New Load.LOAD24 Phases=1 Bus1=597.3 kV=0.23 kW=1.956  PF=0.95
New Load.LOAD25 Phases=1 Bus1=618.2 kV=0.23 kW=0.29400000000000004  PF=0.95
New Load.LOAD26 Phases=1 Bus1=621.2 kV=0.23 kW=0.336  PF=0.95
New Load.LOAD27 Phases=1 Bus1=650.2 kV=0.23 kW=0.27  PF=0.95
New Load.LOAD28 Phases=1 Bus1=662.2 kV=0.23 kW=0.276  PF=0.95
New Load.LOAD29 Phases=1 Bus1=673.3 kV=0.23 kW=0.34800000000000003  PF=0.95
New Load.LOAD30 Phases=1 Bus1=685.2 kV=0.23 kW=0.264  PF=0.95
New Load.LOAD31 Phases=1 Bus1=689.2 kV=0.23 kW=0.28200000000000003  PF=0.95
New Load.LOAD32 Phases=1 Bus1=701.2 kV=0.23 kW=0.342  PF=0.95
New Load.LOAD33 Phases=1 Bus1=782.2 kV=0.23 kW=0.28800000000000003  PF=0.95
New Load.LOAD34 Phases=1 Bus1=806.2 kV=0.23 kW=2.748  PF=0.95
New Load.LOAD35 Phases=1 Bus1=822.2 kV=0.23 kW=0.9612  PF=0.95
New Load.LOAD36 Phases=1 Bus1=866.3 kV=0.23 kW=0.318  PF=0.95
New Load.LOAD37 Phases=1 Bus1=867.1 kV=0.23 kW=0.28200000000000003  PF=0.95
New Load.LOAD38 Phases=1 Bus1=876.2 kV=0.23 kW=0.276  PF=0.95
New Load.LOAD39 Phases=1 Bus1=884.3 kV=0.23 kW=9.738  PF=0.95
New Load.LOAD40 Phases=1 Bus1=890.3 kV=0.23 kW=0.28800000000000003  PF=0.95
New Load.LOAD41 Phases=1 Bus1=896.2 kV=0.23 kW=0.28800000000000003  PF=0.95
New Load.LOAD42 Phases=1 Bus1=900.3 kV=0.23 kW=0.15000000000000002  PF=0.95
New Load.LOAD43 Phases=1 Bus1=906.2 kV=0.23 kW=0.318  PF=0.95
New Load.LOAD44 Phases=1 Bus1=926.1 kV=0.23 kW=1.8719999999999999  PF=0.95
New Load.LOAD45 Phases=1 Bus1=951.2 kV=0.23 kW=5.586  PF=0.95
New Load.LOAD46 Phases=1 Bus1=955.1 kV=0.23 kW=0.336  PF=0.95
New Load.LOAD47 Phases=1 Bus1=967.2 kV=0.23 kW=0.354  PF=0.95
New Load.LOAD48 Phases=1 Bus1=968.2 kV=0.23 kW=0.21599999999999997  PF=0.95
New Load.LOAD49 Phases=1 Bus1=975.2 kV=0.23 kW=0.324  PF=0.95
New Load.LOAD50 Phases=1 Bus1=981.1 kV=0.23 kW=0.318  PF=0.95
New Load.LOAD51 Phases=1 Bus1=1003.1 kV=0.23 kW=0.33  PF=0.95
New Load.LOAD52 Phases=1 Bus1=1024.2 kV=0.23 kW=0.22799999999999998  PF=0.95
New Load.LOAD53 Phases=1 Bus1=1028.1 kV=0.23 kW=0.9179999999999999  PF=0.95
New Load.LOAD54 Phases=1 Bus1=1029.2 kV=0.23 kW=0.28800000000000003  PF=0.95
! --------------------------------------------------------------------------